*Heading
** Job name: beam_2D Model name: Model-1
** Generated by: Abaqus/CAE 2016
*Preprint, echo=NO, model=NO, history=NO, contact=NO
**
** PARTS
**
*Part, name=Part-1
*End Part
**  
**
** ASSEMBLY
**
*Assembly, name=Assembly
**  
*Instance, name=Part-1-1, part=Part-1
*Node
      1,           0.,  0.119999997,           0.
      2,           0.,  0.119999997,           2.
      3, -0.0590000004,  0.119999997,           2.
      4, -0.0590000004,  0.119999997,           0.
      5, 0.0590000004,  0.119999997,           0.
      6, 0.0590000004,  0.119999997,           2.
      7,           0., -0.119999997,           2.
      8,           0., -0.119999997,           0.
      9, 0.0590000004, -0.119999997,           0.
     10, 0.0590000004, -0.119999997,           2.
     11, -0.0590000004, -0.119999997,           2.
     12, -0.0590000004, -0.119999997,           0.
     13,           0.,  0.119999997,  0.100000001
     14,           0.,  0.119999997,  0.200000003
     15,           0.,  0.119999997,  0.300000012
     16,           0.,  0.119999997,  0.400000006
     17,           0.,  0.119999997,          0.5
     18,           0.,  0.119999997,  0.600000024
     19,           0.,  0.119999997,  0.699999988
     20,           0.,  0.119999997,  0.800000012
** ... 127 like lines cut
*Element, type=S4R
 1,  1, 13, 50,  4
 2, 13, 14, 49, 50
 3, 14, 15, 48, 49
 4, 15, 16, 47, 48
 5, 16, 17, 46, 47
 6, 17, 18, 45, 46
 7, 18, 19, 44, 45
 8, 19, 20, 43, 44
 9, 20, 21, 42, 43
10, 21, 22, 41, 42
11, 22, 23, 40, 41
12, 23, 24, 39, 40
13, 24, 25, 38, 39
14, 25, 26, 37, 38
15, 26, 27, 36, 37
16, 27, 28, 35, 36
17, 28, 29, 34, 35
18, 29, 30, 33, 34
19, 30, 31, 32, 33
20, 31,  2,  3, 32
** ... 100 like lines cut
*Nset, nset=_PickedSet2, internal
   1,   2,   7,   8,  13,  14,  15,  16,  17,  18,  19,  20,  21,  22,  23,  24
  25,  26,  27,  28,  29,  30,  31,  70,  71,  72,  73,  74,  75,  76,  77,  78
  79,  80,  81,  82,  83,  84,  85,  86,  87,  88,  89,  90, 129, 130, 131, 132
 133, 134, 135, 136, 137, 138, 139, 140, 141, 142, 143, 144, 145, 146, 147
*Elset, elset=_PickedSet2, internal, generate
 41,  80,   1
*Nset, nset=_PickedSet3, internal
  1,  2,  3,  4, 13, 14, 15, 16, 17, 18, 19, 20, 21, 22, 23, 24
 25, 26, 27, 28, 29, 30, 31, 32, 33, 34, 35, 36, 37, 38, 39, 40
 41, 42, 43, 44, 45, 46, 47, 48, 49, 50
*Elset, elset=_PickedSet3, internal, generate
  1,  20,   1
*Nset, nset=_PickedSet4, internal
  1,  2,  5,  6, 13, 14, 15, 16, 17, 18, 19, 20, 21, 22, 23, 24
 25, 26, 27, 28, 29, 30, 31, 51, 52, 53, 54, 55, 56, 57, 58, 59
 60, 61, 62, 63, 64, 65, 66, 67, 68, 69
*Elset, elset=_PickedSet4, internal, generate
 21,  40,   1
*Nset, nset=_PickedSet5, internal
   7,   8,   9,  10,  72,  73,  74,  75,  76,  77,  78,  79,  80,  81,  82,  83
  84,  85,  86,  87,  88,  89,  90,  91,  92,  93,  94,  95,  96,  97,  98,  99
 100, 101, 102, 103, 104, 105, 106, 107, 108, 109
*Elset, elset=_PickedSet5, internal, generate
  81,  100,    1
*Nset, nset=_PickedSet6, internal
   7,   8,  11,  12,  72,  73,  74,  75,  76,  77,  78,  79,  80,  81,  82,  83
  84,  85,  86,  87,  88,  89,  90, 110, 111, 112, 113, 114, 115, 116, 117, 118
 119, 120, 121, 122, 123, 124, 125, 126, 127, 128
*Elset, elset=_PickedSet6, internal, generate
 101,  120,    1
** Section: Section-1
*Shell Section, elset=_PickedSet3, material=steel
0.01, 5
** Section: Section-1
*Shell Section, elset=_PickedSet4, material=steel
0.01, 5
** Section: Section-2
*Shell Section, elset=_PickedSet2, material=steel
0.013, 5
** Section: Section-1
*Shell Section, elset=_PickedSet5, material=steel
0.01, 5
** Section: Section-1
*Shell Section, elset=_PickedSet6, material=steel
0.01, 5
*End Instance
**  
*Nset, nset=_PickedSet19, internal, instance=Part-1-1
 1, 5
*Elset, elset=_PickedSet19, internal, instance=Part-1-1
 40,
*Nset, nset=_PickedSet20, internal, instance=Part-1-1
 1, 4
*Elset, elset=_PickedSet20, internal, instance=Part-1-1
 1,
*Nset, nset=_PickedSet21, internal, instance=Part-1-1
  1,  8, 71
*Elset, elset=_PickedSet21, internal, instance=Part-1-1
 79, 80
*Nset, nset=_PickedSet22, internal, instance=Part-1-1
 8, 9
*Elset, elset=_PickedSet22, internal, instance=Part-1-1
 100,
*Nset, nset=_PickedSet23, internal, instance=Part-1-1
  8, 12
*Elset, elset=_PickedSet23, internal, instance=Part-1-1
 101,
*Nset, nset=_PickedSet24, internal, instance=Part-1-1
 2,
*End Assembly
** 
** MATERIALS
** 
*Material, name=steel
*Elastic
 2.06e+11, 0.3
** ----------------------------------------------------------------
** 
** STEP: beam_2D
** 
*Step, name=beam_2D, nlgeom=NO
*Static
1., 1., 1e-05, 1.
** 
** BOUNDARY CONDITIONS
** 
** Name: BC-1 Type: Displacement/Rotation
*Boundary
_PickedSet19, 1, 1
_PickedSet19, 2, 2
_PickedSet19, 3, 3
_PickedSet19, 4, 4
_PickedSet19, 5, 5
_PickedSet19, 6, 6
** Name: BC-2 Type: Displacement/Rotation
*Boundary
_PickedSet20, 1, 1
_PickedSet20, 2, 2
_PickedSet20, 3, 3
_PickedSet20, 4, 4
_PickedSet20, 5, 5
_PickedSet20, 6, 6
** Name: BC-3 Type: Displacement/Rotation
*Boundary
_PickedSet21, 1, 1
_PickedSet21, 2, 2
_PickedSet21, 3, 3
_PickedSet21, 4, 4
_PickedSet21, 5, 5
_PickedSet21, 6, 6
** Name: BC-4 Type: Displacement/Rotation
*Boundary
_PickedSet22, 1, 1
_PickedSet22, 2, 2
_PickedSet22, 3, 3
_PickedSet22, 4, 4
_PickedSet22, 5, 5
_PickedSet22, 6, 6
** Name: BC-5 Type: Displacement/Rotation
*Boundary
_PickedSet23, 1, 1
_PickedSet23, 2, 2
_PickedSet23, 3, 3
_PickedSet23, 4, 4
_PickedSet23, 5, 5
_PickedSet23, 6, 6
** 
** LOADS
** 
** Name: Load-1   Type: Concentrated force
*Cload
_PickedSet24, 2, -10000.
** 
** OUTPUT REQUESTS
** 
*Restart, write, frequency=0
** 
** FIELD OUTPUT: F-Output-1
** 
*Output, field, variable=PRESELECT
** 
** HISTORY OUTPUT: H-Output-1
** 
*Output, history, variable=PRESELECT
*End Step
