*Heading
** Job name: Job-1 Model name: Model-1
** Generated by: Abaqus/CAE 2016
*Preprint, echo=NO, model=NO, history=NO, contact=NO
**
** PARTS
**
*Part, name=beam_1D
*End Part
**  
**
** ASSEMBLY
**
*Assembly, name=Assembly
**  
*Instance, name=beam_1D-1, part=beam_1D
*Node
      1,           0.,           0.
      2, 0.00999999978,           0.
      3, 0.0199999996,           0.
      4, 0.0299999993,           0.
      5, 0.0399999991,           0.
      6, 0.0500000007,           0.
      7, 0.0599999987,           0.
      8, 0.0700000003,           0.
      9, 0.0799999982,           0.
     10, 0.0900000036,           0.
     11,  0.100000001,           0.
     12,  0.109999999,           0.
     13,  0.119999997,           0.
     14,  0.129999995,           0.
     15,  0.140000001,           0.
     16,  0.150000006,           0.
     17,  0.159999996,           0.
     18,  0.170000002,           0.
     19,  0.180000007,           0.
     20,  0.189999998,           0.
** ... 181 like lines cut
*Element, type=B21
  1,   1,   2
  2,   2,   3
  3,   3,   4
  4,   4,   5
  5,   5,   6
  6,   6,   7
  7,   7,   8
  8,   8,   9
  9,   9,  10
 10,  10,  11
 11,  11,  12
 12,  12,  13
 13,  13,  14
 14,  14,  15
 15,  15,  16
 16,  16,  17
 17,  17,  18
 18,  18,  19
 19,  19,  20
 20,  20,  21
** ... 180 like lines cut
*Nset, nset=_PickedSet3, internal, generate
   1,  201,    1
*Elset, elset=_PickedSet3, internal, generate
   1,  200,    1
** Section: Section-1  Profile: Profile-1
*Beam Section, elset=_PickedSet3, material=steel, temperature=GRADIENTS, section=I
0.125, 0.25, 0.118, 0.118, 0.01, 0.01, 0.013
0.,0.,-1.
*End Instance
**  
*Nset, nset=_PickedSet4, internal, instance=beam_1D-1
 201,
*Nset, nset=_PickedSet5, internal, instance=beam_1D-1
 1,
*End Assembly
** 
** MATERIALS
** 
*Material, name=steel
*Elastic
 2.06e+11, 0.3
** ----------------------------------------------------------------
** 
** STEP: Step-1
** 
*Step, name=Step-1, nlgeom=NO
*Static
1., 1., 1e-05, 1.
** 
** BOUNDARY CONDITIONS
** 
** Name: BC-1 Type: Displacement/Rotation
*Boundary
_PickedSet5, 1, 1
_PickedSet5, 2, 2
_PickedSet5, 6, 6
** 
** LOADS
** 
** Name: conforce   Type: Concentrated force
*Cload
_PickedSet4, 2, -10000.
** 
** OUTPUT REQUESTS
** 
*Restart, write, frequency=0
** 
** FIELD OUTPUT: F-Output-1
** 
*Output, field, variable=PRESELECT
** 
** HISTORY OUTPUT: H-Output-1
** 
*Output, history, variable=PRESELECT
*End Step
